13

O          0.00000        0.00000        0.00000
C          0.00000        0.00000        0.00000
N          0.00000        0.00000        0.00000
C          0.00000        0.00000        0.00000
C          0.00000        0.00000        0.00000
N          0.00000        0.00000        0.00000
C          0.00000        0.00000        0.00000
C          0.00000        0.00000        0.00000
C          0.00000        0.00000        0.00000
C          0.00000        0.00000        0.00000
C          0.00000        0.00000        0.00000
C          0.00000        0.00000        0.00000
C          0.00000        0.00000        0.00000
